tests/data/pglib-opf/pglib_opf_case3_lmbd.json
{"version": "1.0", "type": "input", "is_batch": false, "attributes": {}, "data": {"node": [{"id": 1, "u_rated": 1.0}, {"id": 2, "u_rated": 1.0}, {"id": 3, "u_rated": 1.0}], "line": [{"id": 10000009, "from_node": 1, "to_node": 3, "from_status": 1, "to_status": 1, "r1": 6.5e-10, "x1": 6.2e-09, "c1": 143239.4487827058, "tan1": 0.0, "r0": 6.5e-10, "x0": 6.2e-09, "c0": 143239.4487827058, "tan0": 0.0}, {"id": 10000010, "from_node": 3, "to_node": 2, "from_status": 1, "to_status": 1, "r1": 2.5e-10, "x1": 7.500000000000001e-09, "c1": 222816.92032865348, "tan1": 0.0, "r0": 2.5e-10, "x0": 7.500000000000001e-09, "c0": 222816.92032865348, "tan0": 0.0}, {"id": 10000011, "from_node": 1, "to_node": 2, "from_status": 1, "to_status": 1, "r1": 4.2000000000000005e-10, "x1": 9.000000000000001e-09, "c1": 95492.9658551372, "tan1": 0.0, "r0": 4.2000000000000005e-10, "x0": 9.000000000000001e-09, "c0": 95492.9658551372, "tan0": 0.0}], "source": [{"id": 10000004, "node": 1, "status": 1, "u_ref": 1.0, "sk": 10000000000.0, "rx_ratio": 0.1}], "sym_load": [{"id": 10000001, "node": 1, "status": 1, "type": 0, "p_specified": 110000000.0, "q_specified": 40000000.0}, {"id": 10000002, "node": 2, "status": 1, "type": 0, "p_specified": 110000000.0, "q_specified": 40000000.0}, {"id": 10000003, "node": 3, "status": 1, "type": 0, "p_specified": 95000000.0, "q_specified": 50000000.0}], "sym_gen": [{"id": 10000005, "node": 2, "status": 1, "type": 0, "p_specified": 1000000000.0, "q_specified": 0.0}, {"id": 10000007, "node": 3, "status": 1, "type": 0, "p_specified": 0.0, "q_specified": 0.0}], "shunt": [], "transformer": [], "voltage_regulator": [{"id": 10000006, "regulated_object": 10000005, "status": 1, "u_ref": 1.0, "q_min": -1000000000.0, "q_max": 1000000000.0}, {"id": 10000008, "regulated_object": 10000007, "status": 1, "u_ref": 1.0, "q_min": -1000000000.0, "q_max": 1000000000.0}]}}